*----------------------------------------------------------------------
* SPICE Netlist Generated by TDK Corporation
* Copyright(C) 2015 TDK Corporation.
* All Rights Reserved.
*----------------------------------------------------------------------
* TDK P/N: C2012X7R2E102K085AA (Multilayer Ceramic Chip Capacitor)
* Property: C=1nF
* Size(LxWxT): 2x1.25x0.85mm, 0.079x0.049x0.033inches
* Model Type: Precise Model
* Model Generated on June 29, 2015
*----------------------------------------------------------------------
* Terms and conditions regarding TDK Simulation Models:
* 1)This simulation model is being provided solely for informational
*   purposes. Please refer to the specifications of the products in
*   terms of detailed characteristics of such products.
* 2)In no event shall TDK Corporation of any of its subsidiaries be
*   liable for any loss or damage arising, directly or indirectly,
*   from any information contained in this simulation model, including,
*   but not limited to loss or damages arising from any inaccuracies,
*   omissions or errors in connection with such information.
* 3)Any and all copyrights on this simulation model are owned by
*   TDK Corporation.  Duplication or redistribution of this simulation
*   model without prior written permission from TDK Corporation
*   is prohibited.
* 4)This simulation model is subject to any modification or change
*   without any prior notice.
* 5)Neither TDK Corporation nor any of its subsidiaries shall make any
*   warranty, express or implied, including but not limited to the
*   correctness, implied warranties of merchantability and fitness for
*   a particular purpose with respect to this simulation models.
* 6)The use of this simulation model shall be deemed to have consented
*   to the terms and conditions hereof.
*----------------------------------------------------------------------
* External Node Assignments:
*
*  n1 ---| |--- n2
*
*----------------------------------------------------------------------
* Applicable Conditions:
*   Temperature = 25 degC
*   DC Bias Voltage = 0 V
*   Small Signal Operation
*----------------------------------------------------------------------
.SUBCKT C2012X7R2E102K085AA_p n1 n2
C1 n1 11 9.57838067E-10
C2 n1 12 8.17625257E-12
C3 n1 13 8.17625257E-12
C4 n1 14 8.17625257E-12
C5 n1 15 8.17625257E-12
C6 n1 16 8.17625257E-12
C7 n1 17 8.17625257E-12
L1 n2 21 4.80000000E-10
R1 11 21 2.78554578E-01
R2 11 12 3.28250220E+03
R3 11 13 2.10627103E+04
R4 11 14 1.35133333E+05
R5 11 15 8.66863541E+05
R6 11 16 5.56006648E+06
R7 11 17 3.56575246E+07
R8 n1 11 1.00000000E+10
.ENDS C2012X7R2E102K085AA_p
*----------------------------------------------------------------------
